Circuit: * C:\Users\David\Desktop\UTN\4°\TC2\UTN_BA_TC2\TS6\Draft1.asc


Date: Mon Jul 10 12:02:47 2023
Total elapsed time: 0.125 seconds.

tnom = 27
temp = 27
method = trap
totiter = 0
traniter = 0
tranpoints = 0
accept = 0
rejected = 0
matrix size = 4
fillins = 1
solver = Normal

