Circuit: * C:\Users\David\Desktop\UTN\4°\TC2\UTN_BA_TC2\TS12\Draft1.asc

WARNING: Node V2 is floating.


Date: Sun Nov 19 13:33:58 2023
Total elapsed time: 0.141 seconds.

tnom = 27
temp = 27
method = trap
totiter = 0
traniter = 0
tranpoints = 0
accept = 0
rejected = 0
matrix size = 5
fillins = 0
solver = Normal

