Circuit: * C:\Users\David\Desktop\UTN\4°\TC2\UTN_BA_TC2\TS12\TS12_Ejercicio_2_LTSpice_Z11.asc

WARNING: Node V2 is floating.


Date: Thu Nov 23 10:27:14 2023
Total elapsed time: 0.203 seconds.

tnom = 27
temp = 27
method = trap
totiter = 0
traniter = 0
tranpoints = 0
accept = 0
rejected = 0
matrix size = 5
fillins = 0
solver = Normal

