Circuit: * C:\Users\David\Desktop\UTN\4°\TC2\UTN_BA_TC2\TS12\TS12_Ejercicio_1_LTSpice.asc

WARNING: Node V1 is floating.
WARNING: Node N003 is floating.


Date: Sat Nov 18 18:48:32 2023
Total elapsed time: 0.208 seconds.

tnom = 27
temp = 27
method = trap
totiter = 0
traniter = 0
tranpoints = 0
accept = 0
rejected = 0
matrix size = 4
fillins = 0
solver = Normal

