Circuit: * C:\Users\David\Desktop\UTN\4°\TC2\UTN_BA_TC2\TS10\TS10_Foster_paralelo_LTSpice.asc


Date: Sat Oct 28 14:07:54 2023
Total elapsed time: 0.337 seconds.

tnom = 27
temp = 27
method = trap
totiter = 0
traniter = 0
tranpoints = 0
accept = 0
rejected = 0
matrix size = 4
fillins = 0
solver = Normal

