Circuit: * C:\Users\David\Desktop\UTN\4°\TC2\UTN_BA_TC2\Guia_de_ejercicios\Aproximación_de_funciones_transferencia\01.asc


Date: Mon May 15 11:27:31 2023
Total elapsed time: 0.114 seconds.

tnom = 27
temp = 27
method = trap
totiter = 0
traniter = 0
tranpoints = 0
accept = 0
rejected = 0
matrix size = 4
fillins = 1
solver = Normal

