Circuit: * C:\Users\David\Desktop\UTN\4°\TC2\UTN_BA_TC2\Guia_de_ejercicios\Aproximación_de_funciones_transferencia\02.asc

Ignoring empty pin current: Ix(u1:1)
Ignoring empty pin current: Ix(u1:2)
Ignoring empty pin current: Ix(u2:1)
Ignoring empty pin current: Ix(u2:2)

Date: Mon May 15 14:47:18 2023
Total elapsed time: 0.246 seconds.

tnom = 27
temp = 27
method = trap
totiter = 0
traniter = 0
tranpoints = 0
accept = 0
rejected = 0
matrix size = 9
fillins = 0
solver = Normal

