Circuit: * C:\Users\David\Desktop\UTN\4°\TC2\UTN_BA_TC2\TS11\TS11_Ejercicio_1_LTSpice.asc


Date: Sun Nov 05 13:28:02 2023
Total elapsed time: 0.203 seconds.

tnom = 27
temp = 27
method = trap
totiter = 0
traniter = 0
tranpoints = 0
accept = 0
rejected = 0
matrix size = 6
fillins = 1
solver = Normal

