Circuit: * C:\Users\David\Desktop\UTN\4°\TC2\UTN_BA_TC2\TS3\TS3_LTSpice_FDNR_v2.asc

WARNING: Node N001 is floating.

Ignoring empty pin current: Ix(u1:1)
Ignoring empty pin current: Ix(u1:2)
Ignoring empty pin current: Ix(u2:1)
Ignoring empty pin current: Ix(u2:2)
Ignoring empty pin current: Ix(u3:1)
Ignoring empty pin current: Ix(u3:2)

Date: Mon May 15 20:43:43 2023
Total elapsed time: 0.218 seconds.

tnom = 27
temp = 27
method = trap
totiter = 0
traniter = 0
tranpoints = 0
accept = 0
rejected = 0
matrix size = 10
fillins = 5
solver = Normal

