Circuit: * C:\Users\David\Desktop\UTN\4°\TC2\UTN_BA_TC2\TS3\TS3_LTSpice_Butterworth.asc

Ignoring empty pin current: Ix(u1:1)
Ignoring empty pin current: Ix(u1:2)

Date: Mon May 08 09:09:29 2023
Total elapsed time: 0.192 seconds.

tnom = 27
temp = 27
method = trap
totiter = 0
traniter = 0
tranpoints = 0
accept = 0
rejected = 0
matrix size = 6
fillins = 0
solver = Normal

