Circuit: * C:\Users\David\Desktop\UTN\4°\TC2\UTN_BA_TC2\TPL1\TPL1_Simulacion_Circuital_V1.2.asc

WARNING: Less than two connections to node NC.  This node is used by R.
Direct Newton iteration for .op point succeeded.

Date: Wed Jul 19 18:58:15 2023
Total elapsed time: 0.562 seconds.

tnom = 27
temp = 27
method = trap
totiter = 3
traniter = 0
tranpoints = 0
accept = 0
rejected = 0
matrix size = 14
fillins = 9
solver = Normal
Matrix Compiler1:      60 opcodes
Matrix Compiler2: 1.33 KB object code size
