Circuit: * C:\Users\David\Desktop\UTN\4°\TC2\UTN_BA_TC2\TS1\TS1_LTSpice.asc

Ignoring empty pin current: Ix(u1:1)
Ignoring empty pin current: Ix(u1:2)

Date: Sat Apr 08 14:27:18 2023
Total elapsed time: 0.259 seconds.

tnom = 27
temp = 27
method = trap
totiter = 0
traniter = 0
tranpoints = 0
accept = 0
rejected = 0
matrix size = 5
fillins = 1
solver = Normal

