Circuit: * C:\Users\David\Desktop\UTN\4°\TC2\UTN_BA_TC2\TS4\TS4_LTSpice_Girador.asc

Ignoring empty pin current: Ix(u2:1)
Ignoring empty pin current: Ix(u2:2)
Ignoring empty pin current: Ix(u3:1)
Ignoring empty pin current: Ix(u3:2)
Ignoring empty pin current: Ix(u1:1)
Ignoring empty pin current: Ix(u1:2)

Date: Mon Jul 10 20:42:50 2023
Total elapsed time: 0.437 seconds.

tnom = 27
temp = 27
method = trap
totiter = 0
traniter = 0
tranpoints = 0
accept = 0
rejected = 0
matrix size = 10
fillins = 10
solver = Normal

