Circuit: * C:\Users\David\Desktop\UTN\4°\TC2\UTN_BA_TC2\TS5\TS5_LTSpice_Red_Pasiva_SOS_1.asc


Date: Sun Jul 02 20:46:40 2023
Total elapsed time: 0.174 seconds.

tnom = 27
temp = 27
method = trap
totiter = 0
traniter = 0
tranpoints = 0
accept = 0
rejected = 0
matrix size = 3
fillins = 1
solver = Normal

