Circuit: * C:\Users\David\Desktop\UTN\4°\TC2\UTN_BA_TC2\TS5\TS5_LTSpice_Red_Pasiva_SOS_2.asc


Date: Mon Jul 03 12:54:08 2023
Total elapsed time: 0.156 seconds.

tnom = 27
temp = 27
method = trap
totiter = 0
traniter = 0
tranpoints = 0
accept = 0
rejected = 0
matrix size = 3
fillins = 1
solver = Normal

