Circuit: * C:\Users\David\Desktop\UTN\4°\TC2\UTN_BA_TC2\TS5\TS5_LTSpice_Red_Pasiva_SOSs_Acopladas_Activada.asc

Ignoring empty pin current: Ix(u11:1)
Ignoring empty pin current: Ix(u11:2)
Ignoring empty pin current: Ix(u21:1)
Ignoring empty pin current: Ix(u21:2)
Ignoring empty pin current: Ix(u12:1)
Ignoring empty pin current: Ix(u12:2)
Ignoring empty pin current: Ix(u22:1)
Ignoring empty pin current: Ix(u22:2)
Ignoring empty pin current: Ix(u13:1)
Ignoring empty pin current: Ix(u13:2)
Ignoring empty pin current: Ix(u23:1)
Ignoring empty pin current: Ix(u23:2)
Ignoring empty pin current: Ix(u1:1)
Ignoring empty pin current: Ix(u1:2)
Ignoring empty pin current: Ix(u33:1)
Ignoring empty pin current: Ix(u33:2)

Date: Fri Jul 07 14:39:42 2023
Total elapsed time: 0.422 seconds.

tnom = 27
temp = 27
method = trap
totiter = 0
traniter = 0
tranpoints = 0
accept = 0
rejected = 0
matrix size = 21
fillins = 26
solver = Normal

